ES12_EXP_VOLTAGES.CSV
Bus, BasekV, Node1, Magnitude1, Angle1, pu1, Node2, Magnitude2, Angle2, pu2, Node3, Magnitude3, Angle3, pu3
"ES_ALES12", 13.8, 1,    7962.52,    0.0,   0.99938, 2,    7962.52, -120.0,   0.99938, 3,    7962.52,  120.0,   0.99938
"SES_ES12_9050_BSB116_S", 13.8, 1,    7575.12,   -0.3,   0.95076, 2,    7575.12, -120.3,   0.95076, 3,    7575.12,  119.7,   0.95076
"SES_ES12_9051_BSB116", 13.8, 1,    7575.77,   -0.3,   0.95084, 2,    7575.77, -120.3,   0.95084, 3,    7575.77,  119.7,   0.95084
"SES_ES12_9007_BSB116", 13.8, 1,    7556.36,   -0.3,   0.94841, 2,    7556.36, -120.3,   0.94841, 3,    7556.36,  119.7,   0.94841
"SES_ES12_9008_BSB116", 13.8, 1,    7556.45,   -0.3,   0.94842, 2,    7556.45, -120.3,   0.94842, 3,    7556.45,  119.7,   0.94842
"SES_ES12_9049_BSB116", 13.8, 1,    7573.53,   -0.3,   0.95056, 2,    7573.53, -120.3,   0.95056, 3,    7573.53,  119.7,   0.95056
"SES_ES12_9050_BSB116", 13.8, 1,    7575.12,   -0.3,   0.95076, 2,    7575.12, -120.3,   0.95076, 3,    7575.12,  119.7,   0.95076
"SES_ES12_9069_BSB116", 13.8, 1,    7591.68,   -0.3,   0.95284, 2,    7591.68, -120.3,   0.95284, 3,    7591.68,  119.7,   0.95284
"SES_ES12_9070_BSB116", 13.8, 1,     7591.1,   -0.3,   0.95277, 2,     7591.1, -120.3,   0.95277, 3,     7591.1,  119.7,   0.95277
"SES_ES12_9009_BSB116", 13.8, 1,    7556.56,   -0.3,   0.94843, 2,    7556.56, -120.3,   0.94843, 3,    7556.56,  119.7,   0.94843
"SES_ES12_9010_BSB116", 13.8, 1,    7556.65,   -0.3,   0.94844, 2,    7556.66, -120.3,   0.94844, 3,    7556.66,  119.7,   0.94844
"SES_ES12_9040_BSB116", 13.8, 1,    7567.32,   -0.3,   0.94978, 2,    7567.32, -120.3,   0.94978, 3,    7567.32,  119.7,   0.94978
"SES_ES12_9041_BSB116", 13.8, 1,    7566.79,   -0.3,   0.94971, 2,    7566.79, -120.3,   0.94971, 3,    7566.79,  119.7,   0.94971
"SES_ES12_9117_BSB116", 13.8, 1,    7684.55,   -0.2,   0.96449, 2,    7684.55, -120.2,   0.96449, 3,    7684.55,  119.8,   0.96449
"SES_ES12_9118_BSB116", 13.8, 1,    7684.55,   -0.2,   0.96449, 2,    7684.55, -120.2,   0.96449, 3,    7684.55,  119.8,   0.96449
"SES_ES12_9119_BSB116", 13.8, 1,    7684.55,   -0.2,   0.96449, 2,    7684.55, -120.2,   0.96449, 3,    7684.55,  119.8,   0.96449
"SES_ES12_9120_BSB116", 13.8, 1,    7684.55,   -0.2,   0.96449, 2,    7684.55, -120.2,   0.96449, 3,    7684.55,  119.8,   0.96449
"SES_ES12_9121_BSB116", 13.8, 1,    7684.55,   -0.2,   0.96449, 2,    7684.55, -120.2,   0.96449, 3,    7684.55,  119.8,   0.96449
"SES_ES12_9096_BSB116", 13.8, 1,    7660.62,   -0.2,   0.96149, 2,    7660.62, -120.2,   0.96149, 3,    7660.62,  119.8,   0.96149
"SES_ES12_9097_BSB116_S", 13.8, 1,    7660.59,   -0.2,   0.96149, 2,    7660.59, -120.2,   0.96149, 3,    7660.59,  119.8,   0.96149
"SES_ES12_9099_BSB116", 13.8, 1,    7660.46,   -0.2,   0.96147, 2,    7660.46, -120.2,   0.96147, 3,    7660.46,  119.8,   0.96147
"SES_ES12_9100_BSB116", 13.8, 1,    7660.39,   -0.2,   0.96146, 2,     7660.4, -120.2,   0.96146, 3,     7660.4,  119.8,   0.96146
"SES_ES12_9102_BSB116", 13.8, 1,    7660.25,   -0.2,   0.96145, 2,    7660.25, -120.2,   0.96145, 3,    7660.25,  119.8,   0.96145
"SES_ES12_9105_BSB116", 13.8, 1,    7660.23,   -0.2,   0.96144, 2,    7660.24, -120.2,   0.96144, 3,    7660.24,  119.8,   0.96144
"SES_ES12_9108_BSB116_S", 13.8, 1,     7660.2,   -0.2,   0.96144, 2,     7660.2, -120.2,   0.96144, 3,     7660.2,  119.8,   0.96144
"SES_ES12_9106_BSB116", 13.8, 1,    7660.15,   -0.2,   0.96143, 2,    7660.15, -120.2,   0.96143, 3,    7660.15,  119.8,   0.96143
"SES_ES12_9108_BSB116", 13.8, 1,     7660.2,   -0.2,   0.96144, 2,     7660.2, -120.2,   0.96144, 3,     7660.2,  119.8,   0.96144
"SES_ES12_9110_BSB116", 13.8, 1,     7660.2,   -0.2,   0.96144, 2,     7660.2, -120.2,   0.96144, 3,     7660.2,  119.8,   0.96144
"SES_ES12_9111_BSB116", 13.8, 1,     7660.2,   -0.2,   0.96144, 2,     7660.2, -120.2,   0.96144, 3,     7660.2,  119.8,   0.96144
"SES_ES12_9071_BSB116", 13.8, 1,    7590.54,   -0.3,    0.9527, 2,    7590.54, -120.3,    0.9527, 3,    7590.54,  119.7,    0.9527
"SES_ES12_9072_BSB116", 13.8, 1,    7590.14,   -0.3,   0.95265, 2,    7590.14, -120.3,   0.95265, 3,    7590.14,  119.7,   0.95265
"SES_ES12_9048_BSB116", 13.8, 1,    7571.92,   -0.3,   0.95036, 2,    7571.92, -120.3,   0.95036, 3,    7571.92,  119.7,   0.95036
"SES_ES12_9044_BSB116", 13.8, 1,    7568.48,   -0.3,   0.94993, 2,    7568.48, -120.3,   0.94993, 3,    7568.48,  119.7,   0.94993
"SES_ES12_9045_BSB116", 13.8, 1,     7570.5,   -0.3,   0.95018, 2,     7570.5, -120.3,   0.95018, 3,     7570.5,  119.7,   0.95018
"SES_ES12_9039_BSB116", 13.8, 1,    7567.83,   -0.3,   0.94985, 2,    7567.83, -120.3,   0.94985, 3,    7567.83,  119.7,   0.94985
"SES_ES12_9028_BSB116", 13.8, 1,    7566.08,   -0.3,   0.94963, 2,    7566.08, -120.3,   0.94963, 3,    7566.08,  119.7,   0.94963
"SES_ES12_9042_BSB116", 13.8, 1,    7567.14,   -0.3,   0.94976, 2,    7567.14, -120.3,   0.94976, 3,    7567.14,  119.7,   0.94976
"SES_ES12_9029_BSB116", 13.8, 1,    7567.72,   -0.3,   0.94983, 2,    7567.72, -120.3,   0.94983, 3,    7567.72,  119.7,   0.94983
"SES_ES12_9030_BSB116", 13.8, 1,    7567.65,   -0.3,   0.94982, 2,    7567.65, -120.3,   0.94982, 3,    7567.65,  119.7,   0.94982
"SES_ES12_9031_BSB116", 13.8, 1,    7567.52,   -0.3,   0.94981, 2,    7567.52, -120.3,   0.94981, 3,    7567.52,  119.7,   0.94981
"SES_ES12_9032_BSB116", 13.8, 1,     7567.4,   -0.3,   0.94979, 2,     7567.4, -120.3,   0.94979, 3,     7567.4,  119.7,   0.94979
"SES_ES12_9033_BSB116", 13.8, 1,    7567.26,   -0.3,   0.94977, 2,    7567.26, -120.3,   0.94977, 3,    7567.26,  119.7,   0.94977
"SES_ES12_9045_BSB116_S", 13.8, 1,     7570.5,   -0.3,   0.95018, 2,     7570.5, -120.3,   0.95018, 3,     7570.5,  119.7,   0.95018
"SES_ES12_9081_BSB116", 13.8, 1,    7615.21,   -0.3,   0.95579, 2,    7615.21, -120.3,   0.95579, 3,    7615.21,  119.7,   0.95579
"SES_ES12_9082_BSB116", 13.8, 1,    7618.99,   -0.3,   0.95627, 2,    7618.99, -120.3,   0.95627, 3,    7618.99,  119.7,   0.95627
"SES_ES12_9077_BSB116", 13.8, 1,    7602.34,   -0.3,   0.95418, 2,    7602.34, -120.3,   0.95418, 3,    7602.34,  119.7,   0.95418
"SES_ES12_9078_BSB116", 13.8, 1,    7604.49,   -0.3,   0.95445, 2,    7604.49, -120.3,   0.95445, 3,    7604.49,  119.7,   0.95445
"SES_ES12_9073_BSB116", 13.8, 1,    7593.42,   -0.3,   0.95306, 2,    7593.42, -120.3,   0.95306, 3,    7593.42,  119.7,   0.95306
"SES_ES12_9074_BSB116", 13.8, 1,    7595.31,   -0.3,   0.95329, 2,    7595.32, -120.3,    0.9533, 3,    7595.32,  119.7,    0.9533
"SES_ES12_9112_BSB116", 13.8, 1,     7664.4,   -0.2,   0.96197, 2,    7664.41, -120.2,   0.96197, 3,    7664.41,  119.8,   0.96197
"SES_ES12_9034_BSB116", 13.8, 1,    7567.26,   -0.3,   0.94977, 2,    7567.26, -120.3,   0.94977, 3,    7567.26,  119.7,   0.94977
"SES_ES12_9012_BSB116", 13.8, 1,    7556.93,   -0.3,   0.94848, 2,    7556.94, -120.3,   0.94848, 3,    7556.93,  119.7,   0.94848
"SES_ES12_9013_BSB116", 13.8, 1,    7557.26,   -0.3,   0.94852, 2,    7557.26, -120.3,   0.94852, 3,    7557.26,  119.7,   0.94852
"SES_ES12_9097_BSB116", 13.8, 1,    7660.59,   -0.2,   0.96149, 2,    7660.59, -120.2,   0.96149, 3,    7660.59,  119.8,   0.96149
"SES_ES12_9098_BSB116", 13.8, 1,    7660.52,   -0.2,   0.96148, 2,    7660.52, -120.2,   0.96148, 3,    7660.52,  119.8,   0.96148
"SES_ES12_9092_BSB116", 13.8, 1,    7645.59,   -0.2,    0.9596, 2,    7645.59, -120.2,   0.95961, 3,    7645.59,  119.8,   0.95961
"SES_ES12_9093_BSB116", 13.8, 1,    7649.19,   -0.2,   0.96006, 2,    7649.19, -120.2,   0.96006, 3,    7649.19,  119.8,   0.96006
"SES_ES12_9088_BSB116", 13.8, 1,    7632.73,   -0.3,   0.95799, 2,    7632.73, -120.3,   0.95799, 3,    7632.73,  119.7,   0.95799
"SES_ES12_9089_BSB116", 13.8, 1,    7636.01,   -0.3,    0.9584, 2,    7636.01, -120.3,    0.9584, 3,    7636.01,  119.7,    0.9584
"SES_ES12_9117_BSB116_S", 13.8, 1,    7684.55,   -0.2,   0.96449, 2,    7684.55, -120.2,   0.96449, 3,    7684.55,  119.8,   0.96449
"SES_ES12_9122_BSB116", 13.8, 1,    7689.11,   -0.2,   0.96507, 2,    7689.11, -120.2,   0.96507, 3,    7689.11,  119.8,   0.96507
"SES_ES12_9136_BSB116", 13.8, 1,     7705.9,   -0.2,   0.96717, 2,     7705.9, -120.2,   0.96717, 3,     7705.9,  119.8,   0.96717
"SES_ES12_9137_BSB116", 13.8, 1,    7709.11,   -0.2,   0.96758, 2,    7709.11, -120.2,   0.96758, 3,    7709.11,  119.8,   0.96758
"SES_ES12_9132_BSB116", 13.8, 1,    7693.05,   -0.2,   0.96556, 2,    7693.05, -120.2,   0.96556, 3,    7693.05,  119.8,   0.96556
"SES_ES12_9133_BSB116", 13.8, 1,    7696.09,   -0.2,   0.96594, 2,     7696.1, -120.2,   0.96594, 3,     7696.1,  119.8,   0.96594
"SES_ES12_9144_BSB116", 13.8, 1,    7723.29,   -0.2,   0.96936, 2,    7723.29, -120.2,   0.96936, 3,    7723.29,  119.8,   0.96936
"SES_ES12_9145_BSB116", 13.8, 1,    7726.83,   -0.2,    0.9698, 2,    7726.83, -120.2,    0.9698, 3,    7726.83,  119.8,    0.9698
"SES_ES12_9247_BSBRJ001B_ATV", 13.8, 1,    7566.31,   -0.3,   0.94965, 2,    7566.31, -120.3,   0.94965, 3,    7566.31,  119.7,   0.94965
"SES_ES12_9005_BSB116", 13.8, 1,    7556.16,   -0.3,   0.94838, 2,    7556.16, -120.3,   0.94838, 3,    7556.16,  119.7,   0.94838
"SES_ES12_9004_BSB116_S", 13.8, 1,    7556.07,   -0.3,   0.94837, 2,    7556.07, -120.3,   0.94837, 3,    7556.07,  119.7,   0.94837
"SES_ES12_9004_BSB116", 13.8, 1,    7556.07,   -0.3,   0.94837, 2,    7556.07, -120.3,   0.94837, 3,    7556.07,  119.7,   0.94837
"SES_ES12_9003_BSB116", 13.8, 1,       7556,   -0.3,   0.94836, 2,    7556.01, -120.3,   0.94836, 3,    7556.01,  119.7,   0.94836
"SES_ES12_9002_BSB116_S", 13.8, 1,    7555.92,   -0.3,   0.94835, 2,    7555.92, -120.3,   0.94835, 3,    7555.92,  119.7,   0.94835
"SES_ES12_9002_BSB116", 13.8, 1,    7555.92,   -0.3,   0.94835, 2,    7555.92, -120.3,   0.94835, 3,    7555.92,  119.7,   0.94835
"SES_ES12_9001_BSB116", 13.8, 1,    7555.84,   -0.3,   0.94834, 2,    7555.84, -120.3,   0.94834, 3,    7555.84,  119.7,   0.94834
"SES_ES12_9104_BSB116_S", 13.8, 1,    7660.21,   -0.2,   0.96144, 2,    7660.21, -120.2,   0.96144, 3,    7660.21,  119.8,   0.96144
"SES_ES12_9015_BSB116", 13.8, 1,    7557.89,   -0.3,    0.9486, 2,    7557.89, -120.3,    0.9486, 3,    7557.89,  119.7,    0.9486
"SES_ES12_9149_BSB116", 13.8, 1,    7741.16,   -0.2,    0.9716, 2,    7741.16, -120.2,    0.9716, 3,    7741.16,  119.8,    0.9716
"SES_ES12_9087_BSB099", 13.8, 1,    7744.09,   -0.2,   0.97197, 2,    7744.09, -120.2,   0.97197, 3,    7744.09,  119.8,   0.97197
"SES_ES12_9011_BSB116", 13.8, 1,    7556.59,   -0.3,   0.94843, 2,    7556.59, -120.3,   0.94843, 3,    7556.59,  119.7,   0.94843
"SES_ES12_9016_BSB116", 13.8, 1,    7558.21,   -0.3,   0.94864, 2,    7558.21, -120.3,   0.94864, 3,    7558.21,  119.7,   0.94864
"SES_ES12_9017_BSB116", 13.8, 1,     7558.1,   -0.3,   0.94862, 2,    7558.11, -120.3,   0.94862, 3,    7558.11,  119.7,   0.94862
"SES_ES12_9148_BSB116", 13.8, 1,    7737.65,   -0.2,   0.97116, 2,    7737.65, -120.2,   0.97116, 3,    7737.65,  119.8,   0.97116
"SES_ES12_9107_BSB116", 13.8, 1,    7660.13,   -0.2,   0.96143, 2,    7660.13, -120.2,   0.96143, 3,    7660.13,  119.8,   0.96143
"SES_ES12_9029_BSB116_S", 13.8, 1,    7567.72,   -0.3,   0.94983, 2,    7567.72, -120.3,   0.94983, 3,    7567.72,  119.7,   0.94983
"SES_ES12_9006_BSB116", 13.8, 1,    7556.25,   -0.3,   0.94839, 2,    7556.25, -120.3,   0.94839, 3,    7556.25,  119.7,   0.94839
"SES_ES12_9019_BSB116", 13.8, 1,    7559.53,   -0.3,    0.9488, 2,    7559.53, -120.3,    0.9488, 3,    7559.53,  119.7,    0.9488
"SES_ES12_9020_BSB116", 13.8, 1,    7560.43,   -0.3,   0.94892, 2,    7560.43, -120.3,   0.94892, 3,    7560.43,  119.7,   0.94892
"SES_ES12_9022_BSB116", 13.8, 1,    7561.21,   -0.3,   0.94901, 2,    7561.21, -120.3,   0.94901, 3,    7561.21,  119.7,   0.94901
"SES_ES12_9023_BSB116", 13.8, 1,    7561.98,   -0.3,   0.94911, 2,    7561.98, -120.3,   0.94911, 3,    7561.98,  119.7,   0.94911
"SES_ES12_9026_BSB116", 13.8, 1,    7564.28,   -0.3,    0.9494, 2,    7564.28, -120.3,    0.9494, 3,    7564.28,  119.7,    0.9494
"SES_ES12_9027_BSB116", 13.8, 1,    7564.87,   -0.3,   0.94947, 2,    7564.87, -120.3,   0.94947, 3,    7564.87,  119.7,   0.94947
"SES_ES12_9057_BSB116", 13.8, 1,    7577.94,   -0.3,   0.95111, 2,    7577.94, -120.3,   0.95111, 3,    7577.94,  119.7,   0.95111
"SES_ES12_9068_BSB116", 13.8, 1,    7591.91,   -0.3,   0.95287, 2,    7591.91, -120.3,   0.95287, 3,    7591.91,  119.7,   0.95287
"SES_ES12_9060_BSB116", 13.8, 1,    7581.79,   -0.3,    0.9516, 2,    7581.79, -120.3,    0.9516, 3,    7581.79,  119.7,    0.9516
"SES_ES12_9061_BSB116", 13.8, 1,    7583.07,   -0.3,   0.95176, 2,    7583.07, -120.3,   0.95176, 3,    7583.07,  119.7,   0.95176
"SES_ES12_9059_BSB116", 13.8, 1,    7580.51,   -0.3,   0.95144, 2,    7580.51, -120.3,   0.95144, 3,    7580.51,  119.7,   0.95144
"SES_ES12_9058_BSB116", 13.8, 1,    7579.24,   -0.3,   0.95128, 2,    7579.24, -120.3,   0.95128, 3,    7579.24,  119.7,   0.95128
"SES_ES12_9066_BSB116", 13.8, 1,     7589.5,   -0.3,   0.95257, 2,     7589.5, -120.3,   0.95257, 3,     7589.5,  119.7,   0.95257
"SES_ES12_9067_BSB116", 13.8, 1,    7590.81,   -0.3,   0.95273, 2,    7590.81, -120.3,   0.95273, 3,    7590.81,  119.7,   0.95273
"SES_ES12_9065_BSB116", 13.8, 1,    7588.16,   -0.3,    0.9524, 2,    7588.16, -120.3,    0.9524, 3,    7588.16,  119.7,    0.9524
"SES_ES12_9064_BSB116", 13.8, 1,    7586.96,   -0.3,   0.95225, 2,    7586.96, -120.3,   0.95225, 3,    7586.96,  119.7,   0.95225
"SES_ES12_9063_BSB116", 13.8, 1,    7585.61,   -0.3,   0.95208, 2,    7585.61, -120.3,   0.95208, 3,    7585.61,  119.7,   0.95208
"SES_ES12_9062_BSB116", 13.8, 1,    7584.34,   -0.3,   0.95192, 2,    7584.34, -120.3,   0.95192, 3,    7584.34,  119.7,   0.95192
"SES_ES12_9085_BSB116", 13.8, 1,    7622.16,   -0.3,   0.95666, 2,    7622.16, -120.3,   0.95666, 3,    7622.16,  119.7,   0.95666
"SES_ES12_9086_BSB116", 13.8, 1,    7626.51,   -0.3,   0.95721, 2,    7626.51, -120.3,   0.95721, 3,    7626.51,  119.7,   0.95721
"SES_ES12_9018_BSB116", 13.8, 1,    7559.09,   -0.3,   0.94875, 2,    7559.09, -120.3,   0.94875, 3,    7559.09,  119.7,   0.94875
"SES_ES12_9021_BSB116", 13.8, 1,    7560.41,   -0.3,   0.94891, 2,    7560.41, -120.3,   0.94891, 3,    7560.41,  119.7,   0.94891
"SES_ES12_9080_BSB116", 13.8, 1,    7611.58,   -0.3,   0.95534, 2,    7611.58, -120.3,   0.95534, 3,    7611.58,  119.7,   0.95534
"SES_ES12_9079_BSB116", 13.8, 1,    7608.16,   -0.3,   0.95491, 2,    7608.16, -120.3,   0.95491, 3,    7608.16,  119.7,   0.95491
"SES_ES12_9076_BSB116", 13.8, 1,     7599.9,   -0.3,   0.95387, 2,     7599.9, -120.3,   0.95387, 3,     7599.9,  119.7,   0.95387
"SES_ES12_9075_BSB116", 13.8, 1,    7597.66,   -0.3,   0.95359, 2,    7597.66, -120.3,   0.95359, 3,    7597.66,  119.7,   0.95359
"SES_ES12_9113_BSB116", 13.8, 1,    7668.53,   -0.2,   0.96248, 2,    7668.53, -120.2,   0.96248, 3,    7668.53,  119.8,   0.96248
"SES_ES12_9114_BSB116", 13.8, 1,    7672.45,   -0.2,   0.96298, 2,    7672.45, -120.2,   0.96298, 3,    7672.45,  119.8,   0.96298
"SES_ES12_9095_BSB116", 13.8, 1,    7656.57,   -0.2,   0.96098, 2,    7656.57, -120.2,   0.96098, 3,    7656.57,  119.8,   0.96098
"SES_ES12_9094_BSB116", 13.8, 1,    7652.83,   -0.2,   0.96051, 2,    7652.83, -120.2,   0.96051, 3,    7652.83,  119.8,   0.96051
"SES_ES12_9090_BSB116", 13.8, 1,    7639.43,   -0.2,   0.95883, 2,    7639.43, -120.2,   0.95883, 3,    7639.43,  119.8,   0.95883
"SES_ES12_9091_BSB116", 13.8, 1,    7642.45,   -0.2,   0.95921, 2,    7642.45, -120.2,   0.95921, 3,    7642.45,  119.8,   0.95921
"SES_ES12_9087_BSB116", 13.8, 1,    7629.61,   -0.3,    0.9576, 2,    7629.61, -120.3,    0.9576, 3,    7629.61,  119.7,    0.9576
"SES_ES12_9116_BSB116", 13.8, 1,    7680.11,   -0.2,   0.96394, 2,    7680.11, -120.2,   0.96394, 3,    7680.11,  119.8,   0.96394
"SES_ES12_9115_BSB116", 13.8, 1,    7676.39,   -0.2,   0.96347, 2,    7676.39, -120.2,   0.96347, 3,    7676.39,  119.8,   0.96347
"SES_ES12_9140_BSB116", 13.8, 1,    7717.73,   -0.2,   0.96866, 2,    7717.73, -120.2,   0.96866, 3,    7717.73,  119.8,   0.96866
"SES_ES12_9143_BSB116", 13.8, 1,    7719.65,   -0.2,    0.9689, 2,    7719.65, -120.2,    0.9689, 3,    7719.65,  119.8,    0.9689
"SES_ES12_9138_BSB116", 13.8, 1,    7712.47,   -0.2,     0.968, 2,    7712.48, -120.2,     0.968, 3,    7712.48,  119.8,     0.968
"SES_ES12_9139_BSB116", 13.8, 1,    7715.98,   -0.2,   0.96844, 2,    7715.98, -120.2,   0.96844, 3,    7715.98,  119.8,   0.96844
"SES_ES12_9135_BSB116", 13.8, 1,    7702.73,   -0.2,   0.96678, 2,    7702.73, -120.2,   0.96678, 3,    7702.73,  119.8,   0.96678
"SES_ES12_9134_BSB116", 13.8, 1,    7699.25,   -0.2,   0.96634, 2,    7699.25, -120.2,   0.96634, 3,    7699.25,  119.8,   0.96634
"SES_ES12_9088_BSB099", 13.8, 1,    7747.19,   -0.2,   0.97236, 2,    7747.19, -120.2,   0.97236, 3,    7747.19,  119.8,   0.97236
"SES_ES12_9120_BSB099", 13.8, 1,    7752.76,   -0.2,   0.97306, 2,    7752.76, -120.2,   0.97306, 3,    7752.76,  119.8,   0.97306
"SES_ES12_9147_BSB116", 13.8, 1,    7734.05,   -0.2,   0.97071, 2,    7734.06, -120.2,   0.97071, 3,    7734.06,  119.8,   0.97071
"SES_ES12_9146_BSB116", 13.8, 1,    7730.42,   -0.2,   0.97025, 2,    7730.42, -120.2,   0.97025, 3,    7730.42,  119.8,   0.97025
"SES_ES12_9020_BSB116_S", 13.8, 1,    7560.43,   -0.3,   0.94892, 2,    7560.43, -120.3,   0.94892, 3,    7560.43,  119.7,   0.94892
"SES_ES12_9025_BSB116", 13.8, 1,    7563.73,   -0.3,   0.94933, 2,    7563.73, -120.3,   0.94933, 3,    7563.73,  119.7,   0.94933
"SES_ES12_9046_BSB116", 13.8, 1,    7570.32,   -0.3,   0.95016, 2,    7570.32, -120.3,   0.95016, 3,    7570.32,  119.7,   0.95016
"SES_ES12_9024_BSB116", 13.8, 1,       7563,   -0.3,   0.94924, 2,       7563, -120.3,   0.94924, 3,       7563,  119.7,   0.94924
"SES_ES12_9101_BSB116", 13.8, 1,    7660.33,   -0.2,   0.96145, 2,    7660.33, -120.2,   0.96146, 3,    7660.33,  119.8,   0.96146
"SES_ES12_9103_BSB116", 13.8, 1,    7660.17,   -0.2,   0.96144, 2,    7660.17, -120.2,   0.96144, 3,    7660.17,  119.8,   0.96144
"SES_ES12_9104_BSB116", 13.8, 1,    7660.21,   -0.2,   0.96144, 2,    7660.21, -120.2,   0.96144, 3,    7660.21,  119.8,   0.96144
"SES_ES12_9109_BSB116", 13.8, 1,     7660.2,   -0.2,   0.96144, 2,     7660.2, -120.2,   0.96144, 3,     7660.2,  119.8,   0.96144
"SES_ES12_9110_BSB116_S", 13.8, 1,     7660.2,   -0.2,   0.96144, 2,     7660.2, -120.2,   0.96144, 3,     7660.2,  119.8,   0.96144
"SES_ES12_9047_BSB116", 13.8, 1,    7570.01,   -0.3,   0.95012, 2,    7570.01, -120.3,   0.95012, 3,    7570.01,  119.7,   0.95012
"SES_ES12_9016_BSB116_S", 13.8, 1,    7558.21,   -0.3,   0.94864, 2,    7558.21, -120.3,   0.94864, 3,    7558.21,  119.7,   0.94864
"SES_ES12_9023_BSB116_S", 13.8, 1,    7561.98,   -0.3,   0.94911, 2,    7561.98, -120.3,   0.94911, 3,    7561.98,  119.7,   0.94911
"SES_ES12_9043_BSB116", 13.8, 1,    7567.13,   -0.3,   0.94976, 2,    7567.13, -120.3,   0.94976, 3,    7567.13,  119.7,   0.94976
"SES_ES12_9010_BSB116_S", 13.8, 1,    7556.65,   -0.3,   0.94844, 2,    7556.66, -120.3,   0.94844, 3,    7556.66,  119.7,   0.94844
"SES_ES12_9119_BSB099", 13.8, 1,    7753.46,   -0.2,   0.97314, 2,    7753.46, -120.2,   0.97314, 3,    7753.46,  119.8,   0.97314
"SES_ES12_9120_BSB099_S", 13.8, 1,    7752.76,   -0.2,   0.97306, 2,    7752.76, -120.2,   0.97306, 3,    7752.76,  119.8,   0.97306
"SES_ES12_9027_BSB116_S", 13.8, 1,    7564.87,   -0.3,   0.94947, 2,    7564.87, -120.3,   0.94947, 3,    7564.87,  119.7,   0.94947
"SES_ES12_PT_CH1_521_S", 13.8, 1,    7589.84,   -0.3,   0.95261, 2,    7589.84, -120.3,   0.95261, 3,    7589.84,  119.7,   0.95261
"SES_ES12_PT_TF_522", 13.8, 1,    7589.79,   -0.3,    0.9526, 2,    7589.79, -120.3,    0.9526, 3,    7589.79,  119.7,    0.9526
"SES_ES12_PT_CH1_522_S", 13.8, 1,     7589.9,   -0.3,   0.95261, 2,     7589.9, -120.3,   0.95261, 3,     7589.9,  119.7,   0.95261
"SES_ES12_PT_TF_523", 13.8, 1,    7589.87,   -0.3,   0.95261, 2,    7589.87, -120.3,   0.95261, 3,    7589.87,  119.7,   0.95261
"SES_ES12_11251396", 13.8, 1,    7589.94,   -0.3,   0.95262, 2,    7589.94, -120.3,   0.95262, 3,    7589.94,  119.7,   0.95262
"SES_ES12_PT_CH1_522", 13.8, 1,     7589.9,   -0.3,   0.95261, 2,     7589.9, -120.3,   0.95261, 3,     7589.9,  119.7,   0.95261
"SES_ES12_11270217", 13.8, 1,    7957.48,    0.0,   0.99875, 2,    7957.48, -120.0,   0.99875, 3,    7957.48,  120.0,   0.99875
"SES_ES12_11261191", 13.8, 1,    7953.64,    0.0,   0.99827, 2,    7953.64, -120.0,   0.99827, 3,    7953.64,  120.0,   0.99827
"SES_ES12_11261185", 13.8, 1,    7952.47,    0.0,   0.99812, 2,    7952.47, -120.0,   0.99812, 3,    7952.47,  120.0,   0.99812
"SES_ES12_11261190", 13.8, 1,    7946.57,   -0.1,   0.99738, 2,    7946.57, -120.1,   0.99738, 3,    7946.57,  119.9,   0.99738
"SES_ES12_11261189", 13.8, 1,    7940.39,   -0.1,   0.99661, 2,    7940.39, -120.1,   0.99661, 3,    7940.39,  119.9,   0.99661
"SES_ES12_11261186", 13.8, 1,    7934.91,   -0.1,   0.99592, 2,    7934.91, -120.1,   0.99592, 3,    7934.91,  119.9,   0.99592
"SES_ES12_11261183", 13.8, 1,    7930.22,   -0.1,   0.99533, 2,    7930.22, -120.1,   0.99533, 3,    7930.22,  119.9,   0.99533
"SES_ES12_11261139", 13.8, 1,    7924.94,   -0.1,   0.99467, 2,    7924.94, -120.1,   0.99467, 3,    7924.94,  119.9,   0.99467
"SES_ES12_11261182", 13.8, 1,    7919.89,   -0.1,   0.99403, 2,    7919.89, -120.1,   0.99403, 3,    7919.89,  119.9,   0.99403
"SES_ES12_11261181", 13.8, 1,    7914.85,   -0.1,    0.9934, 2,    7914.85, -120.1,    0.9934, 3,    7914.85,  119.9,    0.9934
"SES_ES12_11261180", 13.8, 1,    7910.83,   -0.1,    0.9929, 2,    7910.83, -120.1,    0.9929, 3,    7910.83,  119.9,    0.9929
"SES_ES12_11261179", 13.8, 1,    7905.65,   -0.1,   0.99224, 2,    7905.65, -120.1,   0.99224, 3,    7905.65,  119.9,   0.99224
"SES_ES12_11251798", 13.8, 1,    7901.59,   -0.1,   0.99174, 2,    7901.59, -120.1,   0.99174, 3,    7901.59,  119.9,   0.99174
"SES_ES12_11251819", 13.8, 1,    7897.64,   -0.1,   0.99124, 2,    7897.64, -120.1,   0.99124, 3,    7897.64,  119.9,   0.99124
"SES_ES12_11251821", 13.8, 1,    7888.63,   -0.1,   0.99011, 2,    7888.63, -120.1,   0.99011, 3,    7888.63,  119.9,   0.99011
"SES_ES12_11251820", 13.8, 1,    7879.37,   -0.1,   0.98895, 2,    7879.37, -120.1,   0.98895, 3,    7879.37,  119.9,   0.98895
"SES_ES12_11251806", 13.8, 1,     7871.9,   -0.1,   0.98801, 2,     7871.9, -120.1,   0.98801, 3,     7871.9,  119.9,   0.98801
"SES_ES12_11251805", 13.8, 1,    7867.58,   -0.1,   0.98747, 2,    7867.58, -120.1,   0.98747, 3,    7867.58,  119.9,   0.98747
"SES_ES12_11251804", 13.8, 1,    7860.68,   -0.1,    0.9866, 2,    7860.68, -120.1,    0.9866, 3,    7860.68,  119.9,    0.9866
"SES_ES12_11251803", 13.8, 1,    7854.14,   -0.1,   0.98578, 2,    7854.14, -120.1,   0.98578, 3,    7854.14,  119.9,   0.98578
"SES_ES12_11251802", 13.8, 1,    7846.93,   -0.1,   0.98488, 2,    7846.93, -120.1,   0.98488, 3,    7846.93,  119.9,   0.98488
"SES_ES12_11251801", 13.8, 1,    7839.95,   -0.1,     0.984, 2,    7839.95, -120.1,     0.984, 3,    7839.95,  119.9,     0.984
"SES_ES12_11251800", 13.8, 1,    7834.15,   -0.1,   0.98327, 2,    7834.15, -120.1,   0.98327, 3,    7834.15,  119.9,   0.98327
"SES_ES12_11251799", 13.8, 1,    7827.17,   -0.1,    0.9824, 2,    7827.17, -120.1,    0.9824, 3,    7827.17,  119.9,    0.9824
"SES_ES12_11251741", 13.8, 1,    7819.57,   -0.1,   0.98144, 2,    7819.57, -120.1,   0.98144, 3,    7819.57,  119.9,   0.98144
"SES_ES12_11251706", 13.8, 1,    7813.79,   -0.1,   0.98072, 2,    7813.79, -120.1,   0.98072, 3,    7813.79,  119.9,   0.98072
"SES_ES12_11251614", 13.8, 1,    7807.39,   -0.1,   0.97991, 2,    7807.39, -120.1,   0.97991, 3,    7807.39,  119.9,   0.97991
"SES_ES12_11251615", 13.8, 1,    7800.63,   -0.1,   0.97906, 2,    7800.63, -120.1,   0.97906, 3,    7800.63,  119.9,   0.97906
"SES_ES12_11251671", 13.8, 1,    7794.65,   -0.1,   0.97831, 2,    7794.65, -120.1,   0.97831, 3,    7794.65,  119.9,   0.97831
"SES_ES12_11251584", 13.8, 1,    7787.33,   -0.2,   0.97739, 2,    7787.33, -120.2,   0.97739, 3,    7787.33,  119.8,   0.97739
"SES_ES12_11251585", 13.8, 1,    7778.92,   -0.2,   0.97634, 2,    7778.92, -120.2,   0.97634, 3,    7778.92,  119.8,   0.97634
"SES_ES12_11251586", 13.8, 1,    7771.53,   -0.2,   0.97541, 2,    7771.53, -120.2,   0.97541, 3,    7771.53,  119.8,   0.97541
"SES_ES12_11251587", 13.8, 1,    7763.46,   -0.2,    0.9744, 2,    7763.46, -120.2,    0.9744, 3,    7763.46,  119.8,    0.9744
"SES_ES12_11251588", 13.8, 1,    7755.01,   -0.2,   0.97334, 2,    7755.01, -120.2,   0.97334, 3,    7755.01,  119.8,   0.97334
"SES_ES12_11251415", 13.8, 1,    7556.59,   -0.3,   0.94843, 2,    7556.59, -120.3,   0.94843, 3,    7556.59,  119.7,   0.94843
"SES_ES12_11251346", 13.8, 1,    7556.59,   -0.3,   0.94843, 2,    7556.59, -120.3,   0.94843, 3,    7556.59,  119.7,   0.94843
"SES_ES12_11251544", 13.8, 1,     7603.8,   -0.3,   0.95436, 2,     7603.8, -120.3,   0.95436, 3,     7603.8,  119.7,   0.95436
"SES_ES12_11251391", 13.8, 1,    7602.96,   -0.3,   0.95426, 2,    7602.97, -120.3,   0.95426, 3,    7602.97,  119.7,   0.95426
"SES_ES12_11251392", 13.8, 1,    7601.52,   -0.3,   0.95407, 2,    7601.52, -120.3,   0.95407, 3,    7601.52,  119.7,   0.95407
"SES_ES12_11251393", 13.8, 1,    7597.54,   -0.3,   0.95357, 2,    7597.54, -120.3,   0.95357, 3,    7597.54,  119.7,   0.95357
"SES_ES12_11251394", 13.8, 1,    7593.67,   -0.3,   0.95309, 2,    7593.68, -120.3,   0.95309, 3,    7593.68,  119.7,   0.95309
"SES_ES12_11251395", 13.8, 1,    7590.88,   -0.3,   0.95274, 2,    7590.88, -120.3,   0.95274, 3,    7590.88,  119.7,   0.95274
"SES_ES12_9119_BSB099_S", 13.8, 1,    7753.46,   -0.2,   0.97314, 2,    7753.46, -120.2,   0.97314, 3,    7753.46,  119.8,   0.97314
"SES_ES12_PT_CH1_521", 13.8, 1,    7589.84,   -0.3,   0.95261, 2,    7589.84, -120.3,   0.95261, 3,    7589.84,  119.7,   0.95261
"ES-BA3-13", 13.8, 2,    7962.52, -120.0,   0.99938, 3,    7962.52,  120.0,   0.99938, 8,    7962.52,    0.0,   0.99938
"SES_ES12_9111_BSB116_S", 13.8, 1,     7660.2,   -0.2,   0.96144, 2,     7660.2, -120.2,   0.96144, 3,     7660.2,  119.8,   0.96144
"SES_ES12_9028_BSB116_S", 13.8, 1,    7566.08,   -0.3,   0.94963, 2,    7566.08, -120.3,   0.94963, 3,    7566.08,  119.7,   0.94963
"SES_ES12_9042_BSB116_S", 13.8, 1,    7567.14,   -0.3,   0.94976, 2,    7567.14, -120.3,   0.94976, 3,    7567.14,  119.7,   0.94976
"SES_ES12_9121_BSB116_S", 13.8, 1,    7684.55,   -0.2,   0.96449, 2,    7684.55, -120.2,   0.96449, 3,    7684.55,  119.8,   0.96449
"SES_ES12_9034_BSB116_S", 13.8, 1,    7567.26,   -0.3,   0.94977, 2,    7567.26, -120.3,   0.94977, 3,    7567.26,  119.7,   0.94977
"SES_ES12_9040_BSB116_S", 13.8, 1,    7567.32,   -0.3,   0.94978, 2,    7567.32, -120.3,   0.94978, 3,    7567.32,  119.7,   0.94978
"SES_ES12_9021_BSB116_BT_FF3295", 0.38, 1,    203.999,   -1.6,   0.92983, 2,    203.999, -121.6,   0.92984, 3,    203.999,  118.4,   0.92984
"SES_ES12_9023_BSB116_BT_FZ5597", 0.38, 1,    204.042,   -1.6,   0.93003, 2,    204.042, -121.6,   0.93003, 3,    204.042,  118.4,   0.93003
"SES_ES12_9011_BSB116_BT_FP4050", 0.38, 1,    203.897,   -1.6,   0.92937, 2,    203.897, -121.6,   0.92937, 3,    203.897,  118.4,   0.92937
"SES_ES12_9033_BSB116_BT_FP4049", 0.38, 1,    204.184,   -1.6,   0.93068, 2,    204.184, -121.6,   0.93068, 3,    204.184,  118.4,   0.93068
"SES_ES12_9001_BSB116_BT_FP8080", 0.38, 1,    203.876,   -1.6,   0.92927, 2,    203.876, -121.6,   0.92927, 3,    203.876,  118.4,   0.92927
"SES_ES12_9107_BSB116_BT_FP4038", 0.38, 1,    206.684,   -1.6,   0.94207, 2,    206.684, -121.6,   0.94207, 3,    206.684,  118.4,   0.94207
"SES_ES12_9043_BSB116_BT_FT8368", 0.38, 1,     204.18,   -1.6,   0.93066, 2,     204.18, -121.6,   0.93066, 3,     204.18,  118.4,   0.93066
"SES_ES12_9047_BSB116_BT_FP4041", 0.38, 1,    204.258,   -1.6,   0.93101, 2,    204.258, -121.6,   0.93101, 3,    204.258,  118.4,   0.93101
"SES_ES12_9103_BSB116_BT_FF3292", 0.38, 1,    206.685,   -1.6,   0.94208, 2,    206.685, -121.6,   0.94208, 3,    206.685,  118.4,   0.94208
"SES_ES12_9247_BSBRJ001B_ATV_BT_FF3294", 0.38, 1,    204.158,   -1.6,   0.93056, 2,    204.158, -121.6,   0.93056, 3,    204.158,  118.4,   0.93056
"SES_ES12_9017_BSB116_BT_FP8565", 0.38, 1,    203.937,   -1.6,   0.92955, 2,    203.937, -121.6,   0.92955, 3,    203.937,  118.4,   0.92955
"SES_ES12_9018_BSB116_BT_FT1649", 0.38, 1,    203.964,   -1.6,   0.92967, 2,    203.964, -121.6,   0.92967, 3,    203.964,  118.4,   0.92967
"SES_ES12_9072_BSB116_BT_FF3293", 0.38, 1,      204.8,   -1.6,   0.93348, 2,      204.8, -121.6,   0.93348, 3,      204.8,  118.4,   0.93348
"SES_ES12_PT_TF_522_BT_FIC6318_SUBT", 0.38, 1,     198.64,   -3.5,   0.90541, 2,     198.64, -123.5,   0.90541, 3,     198.64,  116.5,   0.90541
"SES_ES12_PT_TF_523_BT_FIC6319_SUBT", 0.38, 1,    204.793,   -1.6,   0.93345, 2,    204.793, -121.6,   0.93345, 3,    204.793,  118.4,   0.93345
